examples/data/enwl/lv-network-models/network_21/Feeder_5/Loads.dss
New Load.LOAD1 Phases=1 Bus1=124.1 kV=0.23 kW=1 PF=0.95
New Load.LOAD2 Phases=1 Bus1=125.2 kV=0.23 kW=1 PF=0.95
New Load.LOAD3 Phases=1 Bus1=126.3 kV=0.23 kW=1 PF=0.95
New Load.LOAD4 Phases=1 Bus1=140.1 kV=0.23 kW=1 PF=0.95
New Load.LOAD5 Phases=1 Bus1=292.2 kV=0.23 kW=1 PF=0.95
New Load.LOAD6 Phases=1 Bus1=330.3 kV=0.23 kW=1 PF=0.95
New Load.LOAD7 Phases=1 Bus1=336.2 kV=0.23 kW=1 PF=0.95
New Load.LOAD8 Phases=1 Bus1=357.2 kV=0.23 kW=1 PF=0.95
New Load.LOAD9 Phases=1 Bus1=360.3 kV=0.23 kW=1 PF=0.95
New Load.LOAD10 Phases=1 Bus1=382.1 kV=0.23 kW=1 PF=0.95
New Load.LOAD11 Phases=1 Bus1=384.2 kV=0.23 kW=1 PF=0.95
New Load.LOAD12 Phases=1 Bus1=417.1 kV=0.23 kW=1 PF=0.95
New Load.LOAD13 Phases=1 Bus1=426.2 kV=0.23 kW=1 PF=0.95
New Load.LOAD14 Phases=1 Bus1=443.1 kV=0.23 kW=1 PF=0.95
New Load.LOAD15 Phases=1 Bus1=642.1 kV=0.23 kW=1 PF=0.95
New Load.LOAD16 Phases=1 Bus1=660.3 kV=0.23 kW=1 PF=0.95
New Load.LOAD17 Phases=1 Bus1=662.1 kV=0.23 kW=1 PF=0.95
New Load.LOAD18 Phases=1 Bus1=689.2 kV=0.23 kW=1 PF=0.95
New Load.LOAD19 Phases=1 Bus1=741.2 kV=0.23 kW=1 PF=0.95
New Load.LOAD20 Phases=1 Bus1=749.3 kV=0.23 kW=1 PF=0.95
New Load.LOAD21 Phases=1 Bus1=822.1 kV=0.23 kW=1 PF=0.95
New Load.LOAD22 Phases=1 Bus1=868.3 kV=0.23 kW=1 PF=0.95
New Load.LOAD23 Phases=1 Bus1=965.3 kV=0.23 kW=1 PF=0.95
New Load.LOAD24 Phases=1 Bus1=966.2 kV=0.23 kW=1 PF=0.95
New Load.LOAD25 Phases=1 Bus1=999.1 kV=0.23 kW=1 PF=0.95
New Load.LOAD26 Phases=1 Bus1=1000.2 kV=0.23 kW=1 PF=0.95
New Load.LOAD27 Phases=1 Bus1=1002.3 kV=0.23 kW=1 PF=0.95